* OPA862 - Rev. A
* Created by Sean Cashin; 2020-02-03
* Created with Green-Williams-Lis Current Sense Amp Macro-model Architecture
* Copyright 2020 by Texas Instruments Corporation
******************************************************
* MACRO-MODEL SIMULATED PARAMETERS:
******************************************************
* AC PARAMETERS
**********************
* CLOSED-LOOP OUTPUT IMPEDANCE VS. FREQUENCY (Zout vs. Freq.)
* CLOSED-LOOP GAIN AND PHASE VS. FREQUENCY  WITH RL, CL EFFECTS (Acl vs. Freq.)
* COMMON-MODE REJECTION RATIO VS. FREQUENCY (CMRR vs. Freq.)
* POWER SUPPLY REJECTION RATIO VS. FREQUENCY (PSRR vs. Freq.)
* INPUT VOLTAGE NOISE DENSITY VS. FREQUENCY (en vs. Freq.)
**********************
* DC PARAMETERS
**********************
* INPUT COMMON-MODE VOLTAGE RANGE (Vcm)
* GAIN ERROR (Eg)
* INPUT BIAS CURRENT VS. INPUT COMMON-MODE VOLTAGE (Ib vs. Vcm)
* INPUT OFFSET VOLTAGE VS. TEMPERATURE (Vos vs. Temp)
* OUTPUT VOLTAGE SWING vs. OUTPUT CURRENT (Vout vs. Iout)
* SHORT-CIRCUIT OUTPUT CURRENT (Isc)
* QUIESCENT CURRENT (Iq)
**********************
* TRANSIENT PARAMETERS
**********************
* SLEW RATE (SR)
* SETTLING TIME VS. CAPACITIVE LOAD (ts)
* OVERLOAD RECOVERY TIME (tor)
******************************************************
.subckt OPA862 VIN VFB VOUT+ VOUT- VREF VCC VEE
******************************************************
.MODEL R_NOISE RES (T_ABS=27)
.MODEL R_NOISELESS RES (T_ABS=-273.15)
C_C1         MID CLAMP  115N   
C_C10         MID N1026763  1E-15   
C_C11         N1027055 MID  1E-15   
C_C12         MID N1026583  1E-15   
C_C13         N1026875 MID  1E-15   
C_C14         MID N56659  1E-15   
C_C15         N56721 MID  1E-15   
C_C16         MID N61579  1E-15   
C_C17         MID N68747  1E-12   
C_C18         MID N68594  1E-12   
C_C19         MID SW_OL_OPA862  1E-12   
C_C1A         N785266 N785276  35.13N   
C_C1A1         N785286 N785296  15.92P   
C_C1A10         N794082 N794088  83.77N   
C_C1A11         N794364 N794108  159.2P   
C_C1A12         N794122 PSRRN  1.592P   
C_C1A13         N810782 N810788  83.77N   
C_C1A14         N810798 N810802  159.2P   
C_C1A15         N810812 PSRRP  1.592P   
C_C1A16         N725398 N725428  159.2U   
C_C1A17         N824604 N725762  1.592U   
C_C1A18         MID N725708  198.9E-15   
C_C1A2         N785650 N785316  3.183P   
C_C1A22         N1093427 N1093437  35.13N   
C_C1A23         N1093447 N1093457  15.92P   
C_C1A24         N1093467 N1093477  3.183P   
C_C1A25         N1093487 N1093497  1.592P   
C_C1A29         N1099161 N1099171  1.592U   
C_C1A3         N725214 N725836  39.79F   
C_C1A30         N1099061 N1099065  159.2U   
C_C1A31         N1099377 N1099387  39.79F   
C_C1A32         MID N1100539  198.9E-15   
C_C1A33         VIN-2 VOUT-  6P   
C_C1A9         N785326 N703229  1.592P   
C_C2         N917434 MID  14F   
C_C3         N917372 N917382  5.488E-13   
C_C33         N406634 0  1E-15   
C_C34         N317950 0  1   
C_C35         N406794 0  1E-15   
C_C4         N917490 MID  0.34F   
C_C58         N695874 MID  0.34F   
C_C59         MID N1095239  1E-15   
C_C60         MID N1095893  1E-15   
C_C61         MID N1096025  1E-15   
C_C62         MID N1096065  1E-15   
C_C63         MID N1096335  1E-15   
C_C64         N1096411 MID  1E-15   
C_C65         N1096483 MID  1E-15   
C_C66         MID N1096883  1E-15   
C_C67         N1096837 MID  1E-15   
C_C68         N1098053 MID  1E-15   
C_C69         MID CLAMP2  115N   
C_C7         N31014 MID  1E-15   
C_C70         N1098985 N1098995  5.488E-13   
C_C71         N1099521 MID  14F   
C_C72         N1099577 MID  0.34F   
C_C73         N1099607 MID  0.34F   
C_C74         MID N1101471  1E-12   
C_C78         MID SW_OL2  1E-12   
C_C79         MID N1102123  1E-12   
C_C8         MID N1026303  1E-15   
C_C9         MID N1026995  1E-15   
C_C_CMN         MID ESDN  1P   
C_C_CMN1         MID ESDN2  1P   
C_C_CMP         ESDP MID  1P   
C_C_CMP1         ESDP2 MID  1P   
C_C_DIFF         ESDN ESDP  1.333P   
C_C_DIFF1         ESDN2 ESDP2  1.333P   
C_C_VCLP         VCLP MID  1E-12   
C_C_VCLP1         VCLP2 MID  1E-12   
C_C_VIMON         MID VIMON  1E-12   
C_C_VIMON1         MID VIMON2  1E-12   
C_C_VOUT_S         MID VOUT_S  1E-9   
C_C_VOUT_S1         MID VOUT_S2  1E-9   
E_E2         N91498 MID CL_CLAMP MID 1
E_E3         N112292 MID VOUT+ MID 1
E_E6         MID 0 N317950 0 1
E_E7         N1099057 MID VOUT- MID 1
E_E9         N1101485 MID CL_CLAMP2 MID 1
G_G1         N785266 MID ESDP MID -44.05U
G_G10         N73852 MID N55875 MID -1
G_G102         N1093427 MID ESDP2 MID -44.05U
G_G103         N1093447 MID N1093437 MID -100
G_G104         N1093467 MID N1093457 MID -20
G_G105         N1093487 MID N1093477 MID -10
G_G109         VCC_CLP2 MID N1095239 MID -1E-3
G_G11         N55050 MID N56119 MID -1
G_G110         N1095955 MID N1095757 MID -1
G_G111         N1095971 MID N1095763 MID -1
G_G112         N1097081 N1097073 N1093497 MID -1E-3
G_G114         VEE_CLP2 MID N1096883 MID -1E-3
G_G115         VSENSE2 MID CLAMP2 MID -1E-3
G_G116         N1099521 MID VSENSE2 MID -1E-6
G_G117         N1098985 MID N1099521 MID -27.59
G_G118         N1099577 MID N1098995 MID -1E-6
G_G119         N1099607 MID N1099577 MID -1E-6
G_G12         VSENSE MID CLAMP MID -1E-3
G_G120         N1099061 MID CL_CLAMP2 N1100133 -90.91
G_G121         N1099161 MID N1099065 MID -50
G_G122         N1099341 MID N1099171 MID -40
G_G123         N1099377 MID N1099359 MID -50
G_G124         N1100339 MID N1099387 MID -5
G_G125         CLAW_CLAMP2 MID N1099607 MID -1E-3
G_G126         CL_CLAMP2 MID CLAW_CLAMP2 MID -1E-3
G_G15         CLAW_CLAMP MID N695874 MID -1E-3
G_G16         CL_CLAMP MID CLAW_CLAMP MID -1E-3
G_G17         N917490 MID N917382 MID -1E-6
G_G2         N10570 N10561 N703229 MID -1E-3
G_G3         N785650 MID N785296 MID -20
G_G36         VCC_B 0 VCC 0 -1
G_G37         VEE_B 0 VEE 0 -1
G_G4         N725346 MID N725762 MID -40
G_G5         N725214 MID N725574 MID -50
G_G58         N785286 MID N785276 MID -100
G_G59         N785326 MID N785316 MID -10
G_G6         N25816 N11984 PSRRP PSRRN -1E-3
G_G60         N794082 MID VEE_B MID -583.8U
G_G61         N794364 MID N794088 MID -1K
G_G62         N794122 MID N794108 MID -9
G_G63         N810782 MID VCC_B MID -583.8U
G_G64         N810798 MID N810788 MID -1K
G_G65         N810812 MID N810802 MID -9
G_G66         N725398 MID CL_CLAMP N516723 -90.91
G_G67         N824604 MID N725428 MID -50
G_G8         VCC_CLP MID N1026303 MID -1E-3
G_G9         VEE_CLP MID N1026995 MID -1E-3
G_G92         N917434 MID VSENSE MID -1E-6
G_G93         N917372 MID N917434 MID -27.59
G_G97         N695874 MID N917490 MID -1E-6
G_G98         N725936 MID N725836 MID -5
I_I_B         N06456 MID DC 1U  
I_I_B1         N1098299 MID DC 1U  
I_I_OS         ESDN MID DC 0.985U  
I_I_OS1         ESDN2 MID DC 0.985U  
I_I_Q         VCC VEE DC 3.1M  
R_R1         ESDP VIN R_NOISELESS 10E-3
R_R10         ESDN N11991 R_NOISELESS 1E-3
R_R107         VCC_B 0 R_NOISELESS 1
R_R108         N317950 0 R_NOISELESS 1E12
R_R109         VEE_B 0 R_NOISELESS 1
R_R11         MID N725346 R_NOISELESS 1
R_R110         VCC_B N406634 R_NOISELESS 1E-3
R_R111         N406634 N317950 R_NOISELESS 1E6
R_R112         N317950 N406794 R_NOISELESS 1E6
R_R113         N406794 VEE_B R_NOISELESS 1E-3
R_R137         MID N725398 R_NOISELESS 1
R_R139         MID N725214 R_NOISELESS 1
R_R140         MID N725936 R_NOISELESS 1
R_R141         N785266 MID R_NOISELESS 1
R_R142         N785286 MID R_NOISELESS 1
R_R143         N785650 MID R_NOISELESS 1
R_R144         N785326 MID R_NOISELESS 1
R_R145         N794082 MID R_NOISELESS 1
R_R146         N794364 MID R_NOISELESS 1
R_R147         N794122 MID R_NOISELESS 1
R_R148         N810782 MID R_NOISELESS 1
R_R149         N810798 MID R_NOISELESS 1
R_R150         N810812 MID R_NOISELESS 1
R_R153         MID N824604 R_NOISELESS 1
R_R1A         N785266 N785276 R_NOISELESS 10K
R_R1A1         N785286 N785296 R_NOISELESS 10K
R_R1A10         N785326 N703229 R_NOISELESS 10K
R_R1A11         N794082 N794088 R_NOISELESS 10K
R_R1A12         N794364 N794108 R_NOISELESS 10K
R_R1A13         N794122 PSRRN R_NOISELESS 10K
R_R1A14         N810782 N810788 R_NOISELESS 10K
R_R1A15         N810798 N810802 R_NOISELESS 10K
R_R1A16         N810812 PSRRP R_NOISELESS 10K
R_R1A18         N725762 N824604 R_NOISELESS 10K
R_R1A2         N785650 N785316 R_NOISELESS 10K
R_R1A36         N1093427 N1093437 R_NOISELESS 10K
R_R1A37         N1093447 N1093457 R_NOISELESS 10K
R_R1A38         N1093467 N1093477 R_NOISELESS 10K
R_R1A39         N1093487 N1093497 R_NOISELESS 10K
R_R1A43         N1099171 N1099161 R_NOISELESS 10K
R_R1A44         N1099065 N1099061 R_NOISELESS 1E4
R_R1A45         VOUT+ VIN-2 R_NOISE 700
R_R1A46         VIN-2 VOUT- R_NOISE 700
R_R1A47         VOUT+ VOUT- R_NOISE 8.4K
R_R1A9         N725428 N725398 R_NOISELESS 1E4
R_R1C2         N725836 N725214 R_NOISELESS 1E4
R_R1C3         N1099387 N1099377 R_NOISELESS 1E4
R_R1D1         N725708 N725574 R_NOISELESS 1E4
R_R1D2         N1100539 N1099359 R_NOISELESS 1E4
R_R2         ESDN VFB R_NOISELESS 10E-3
R_R21         N11984 N25816 R_NOISELESS 1E3
R_R233         N891797 OLN R_NOISELESS 1M
R_R234         N891825 OLP R_NOISELESS 1M
R_R235         N917372 N917382 R_NOISELESS 10K
R_R236         N917434 MID R_NOISELESS 1E6
R_R237         N917372 MID R_NOISELESS 1
R_R238         N917490 MID R_NOISELESS 1E6
R_R239         N917382 MID R_NOISELESS 376.1
R_R245         N695874 MID R_NOISELESS 1E6
R_R249         N1094729 OLN2 R_NOISELESS 1M
R_R25         MID N28602 R_NOISELESS 1E9
R_R250         N1094735 OLP2 R_NOISELESS 1M
R_R251         N1093427 MID R_NOISELESS 1
R_R252         N1093447 MID R_NOISELESS 1
R_R253         N1093467 MID R_NOISELESS 1
R_R254         N1093487 MID R_NOISELESS 1
R_R255         MID N1094691 R_NOISELESS 1E9
R_R256         MID N1094753 R_NOISELESS 1E9
R_R26         N30136 MID R_NOISELESS 1E9
R_R260         N1094929 VCC_B R_NOISELESS 1E3
R_R261         VCC_CLP2 MID R_NOISELESS 1E3
R_R262         MID VCC_CLP2 R_NOISELESS 1E9
R_R263         N1095865 MID R_NOISELESS 1
R_R264         N1096037 MID R_NOISELESS 1
R_R265         N1095239 N1094929 R_NOISELESS 1E-3
R_R266         N1096307 MID R_NOISELESS 1
R_R267         N1095893 N1095865 R_NOISELESS 1E-3
R_R268         N1096025 VSENSE2 R_NOISELESS 1E-3
R_R269         N1096065 N1096037 R_NOISELESS 1E-3
R_R27         MID N30913 R_NOISELESS 1
R_R270         N1096335 N1096307 R_NOISELESS 1E-3
R_R271         N1096411 N1096379 R_NOISELESS 1E-3
R_R272         N1096483 N1096451 R_NOISELESS 1E-3
R_R273         MID N1095955 R_NOISELESS 1
R_R274         MID N1095971 R_NOISELESS 1
R_R275         N1096883 N1096867 R_NOISELESS 1E-3
R_R276         N1096837 N1096809 R_NOISELESS 1E-3
R_R277         MID N1096379 R_NOISELESS 1
R_R278         MID N1096451 R_NOISELESS 1
R_R279         N1096867 VEE_B R_NOISELESS 1E3
R_R28         N31014 N30913 R_NOISELESS 1E-3
R_R280         VEE_CLP2 MID R_NOISELESS 1E3
R_R281         MID N1096809 R_NOISELESS 1
R_R282         N1097073 N1097081 R_NOISELESS 1E3
R_R283         MID N1096159 R_NOISELESS 1E9
R_R284         MID N1096255 R_NOISELESS 1E9
R_R285         MID VEE_CLP2 R_NOISELESS 1E9
R_R287         MID ESDP2 R_NOISELESS 173.3E6
R_R288         N1097817 MID R_NOISELESS 1E9
R_R289         N1098053 N1098039 R_NOISELESS 1E-3
R_R29         N1026281 VCC_B R_NOISELESS 1E3
R_R290         ESDP2 VREF R_NOISELESS 10E-3
R_R291         N1097081 N1098339 R_NOISELESS 1E-3
R_R292         MID N1098039 R_NOISELESS 1
R_R293         MID AOLNET2 R_NOISELESS 1E6
R_R294         MID CLAMP2 R_NOISELESS 1E6
R_R295         MID VSENSE2 R_NOISELESS 1E3
R_R296         MID N1098621 R_NOISELESS 1E9
R_R297         MID N1099029 R_NOISELESS 1E9
R_R298         MID N1099057 R_NOISELESS 1E9
R_R299         N1098985 N1098995 R_NOISELESS 10K
R_R2A         N785276 MID R_NOISELESS 4.532
R_R2A1         N785296 MID R_NOISELESS 101
R_R2A10         N703229 MID R_NOISELESS 1111
R_R2A11         N794088 MID R_NOISELESS 19.04
R_R2A12         N794108 MID R_NOISELESS 10.1
R_R2A13         PSRRN MID R_NOISELESS 1.111K
R_R2A14         N810788 MID R_NOISELESS 19.04
R_R2A15         N810802 MID R_NOISELESS 10.1
R_R2A16         PSRRP MID R_NOISELESS 1.111K
R_R2A17         MID N725428 R_NOISELESS 101
R_R2A18         MID N725762 R_NOISELESS 256.4
R_R2A19         MID N725836 R_NOISELESS 40.16
R_R2A2         N785316 MID R_NOISELESS 526.3
R_R2A25         N1093437 MID R_NOISELESS 4.532
R_R2A26         N1093457 MID R_NOISELESS 101
R_R2A27         N1093477 MID R_NOISELESS 526.3
R_R2A28         N1093497 MID R_NOISELESS 1111
R_R2A32         MID N1099065 R_NOISELESS 101
R_R2A33         MID N1099171 R_NOISELESS 256.4
R_R2A34         MID N1099387 R_NOISELESS 40.16
R_R3         MID ESDP R_NOISELESS 173.3E6
R_R30         N1026303 N1026281 R_NOISELESS 1E-3
R_R300         N1099359 N1099341 R_NOISELESS 150K
R_R301         ESDN2 VIN-2 R_NOISELESS 10E-3
R_R302         ESDN2 N1098391 R_NOISELESS 1E-3
R_R303         ESDN2 MID R_NOISELESS 173.3E6
R_R304         N1099521 MID R_NOISELESS 1E6
R_R305         N1098985 MID R_NOISELESS 1
R_R306         N1099577 MID R_NOISELESS 1E6
R_R307         N1098995 MID R_NOISELESS 376.1
R_R308         N1099607 MID R_NOISELESS 1E6
R_R309         MID N1099061 R_NOISELESS 1
R_R31         VCC_CLP MID R_NOISELESS 1E3
R_R310         MID N1099161 R_NOISELESS 1
R_R311         MID N1099341 R_NOISELESS 1
R_R312         MID N1099377 R_NOISELESS 1
R_R313         MID N1100339 R_NOISELESS 1
R_R314         MID CLAW_CLAMP2 R_NOISELESS 1E3
R_R315         MID CL_CLAMP2 R_NOISELESS 1E3
R_R316         N1101471 OLN2 R_NOISELESS 100
R_R32         N1026979 VEE_B R_NOISELESS 1E3
R_R321         N1101765 SW_OL2 R_NOISELESS 100
R_R325         N1102123 OLP2 R_NOISELESS 100
R_R326         N1101765 MID R_NOISELESS 1
R_R33         N1026995 N1026979 R_NOISELESS 1E-3
R_R34         VEE_CLP MID R_NOISELESS 1E3
R_R35         MID VCC_CLP R_NOISELESS 1E9
R_R36         N1026735 MID R_NOISELESS 1
R_R37         N1026763 N1026735 R_NOISELESS 1E-3
R_R38         N1027055 N1027041 R_NOISELESS 1E-3
R_R39         MID N1027041 R_NOISELESS 1
R_R4         ESDN MID R_NOISELESS 173.3E6
R_R40         MID VEE_CLP R_NOISELESS 1E9
R_R41         MID N1026117 R_NOISELESS 1E9
R_R42         N1026555 MID R_NOISELESS 1
R_R43         N1026583 N1026555 R_NOISELESS 1E-3
R_R44         N1026875 N1026861 R_NOISELESS 1E-3
R_R45         MID N1026861 R_NOISELESS 1
R_R46         MID N1027263 R_NOISELESS 1E9
R_R47         MID N73852 R_NOISELESS 1
R_R48         MID N55050 R_NOISELESS 1
R_R49         MID N56919 R_NOISELESS 1E9
R_R50         N56635 MID R_NOISELESS 1
R_R51         N56659 N56635 R_NOISELESS 1E-3
R_R52         N56721 N56733 R_NOISELESS 1E-3
R_R53         MID N56733 R_NOISELESS 1
R_R54         MID N56891 R_NOISELESS 1E9
R_R55         N61579 VSENSE R_NOISELESS 1E-3
R_R56         N68747 OLN R_NOISELESS 100
R_R57         N68594 OLP R_NOISELESS 100
R_R58         N69264 MID R_NOISELESS 1
R_R59         N69264 SW_OL_OPA862 R_NOISELESS 100
R_R60         MID AOLNET R_NOISELESS 1E6
R_R61         MID CLAMP R_NOISELESS 1E6
R_R62         MID VSENSE R_NOISELESS 1E3
R_R65         MID CLAW_CLAMP R_NOISELESS 1E3
R_R66         MID CL_CLAMP R_NOISELESS 1E3
R_R7         N725574 N725346 R_NOISELESS 150K
R_R8         N10561 N10570 R_NOISELESS 1E3
R_R81         MID N110431 R_NOISELESS 1E9
R_R83         MID N112292 R_NOISELESS 1E9
R_R9         N10570 N11984 R_NOISELESS 1E-3
R_RDUMMY1         MID N516723 R_NOISELESS 100K
R_RDUMMY2         MID N1100133 R_NOISELESS 100K
R_RX1         N516723 N725936 R_NOISELESS 1000K
R_RX2         N1100133 N1100339 R_NOISELESS 1000K
R_R_VCLP         N91498 VCLP R_NOISELESS 100
R_R_VCLP1         N1101485 VCLP2 R_NOISELESS 100
R_R_VIMON         VIMON N110431 R_NOISELESS 100
R_R_VIMON1         VIMON2 N1099029 R_NOISELESS 100
R_R_VOUT_S         VOUT_S N112292 R_NOISELESS 100
R_R_VOUT_S1         VOUT_S2 N1099057 R_NOISELESS 100
V_V12         N1098323 N1098299 50UVDC
V_V7         N749288 N06456 50UVDC
V_VCM_MAX         N30136 VCC_B -1.1
V_VCM_MAX1         N1097817 VCC_B -1.1
V_VCM_MIN         N28602 VEE_B 0.5
V_VCM_MIN1         N1098621 VEE_B 0.5
V_V_GRN         N56891 MID -512.5
V_V_GRN1         N1096255 MID -512.5
V_V_GRP         N56919 MID 512.5
V_V_GRP1         N1094753 MID 512.5
V_V_ISCN         N1027263 MID -50
V_V_ISCN1         N1096159 MID -50
V_V_ISCP         N1026117 MID 57
V_V_ISCP1         N1094691 MID 57
V_V_ORN         N55875 VCLP -0.18
V_V_ORN1         N1095757 VCLP2 -0.18
V_V_ORP         N56119 VCLP 0.18
V_V_ORP1         N1095763 VCLP2 0.18
X_AOL_1_OPA862         N31014 N11991 MID AOLNET AOL_1_OPA862 
X_AOL_2         AOLNET MID MID CLAMP AOL_2_OPA862 
X_AOL_3         N1098053 N1098391 MID AOLNET2 AOL_1_OPA862 
X_AOL_4         AOLNET2 MID MID CLAMP2 AOL_2_OPA862 
X_E_N         ESDP N06456 VNSE_OPA862 
X_E_N1         ESDP2 N1098299 VNSE_OPA862 
X_H1    N73852 N166377 N891797 MID 08_OP_AMP_COMPLETE_H1_OPA862 
X_H2    N55050 N166817 N891825 MID 08_OP_AMP_COMPLETE_H2_OPA862 
X_H3    VOUT+ N516723 N110431 MID 08_OP_AMP_COMPLETE_H3_OPA862 
X_H4    N1095955 N1095959 N1094729 MID 08_OP_AMP_COMPLETE_H4_OPA862 
X_H5    N1095971 N1095965 N1094735 MID 08_OP_AMP_COMPLETE_H5_OPA862 
X_H6    VOUT- N1100133 N1099029 MID 08_OP_AMP_COMPLETE_H6_OPA862 
X_I_NN         ESDN MID FEMT_OPA862 
X_I_NN1         ESDN2 MID FEMT_OPA862 
X_I_NP         N06456 MID FEMT_OPA862 
X_I_NP1         N1098299 MID FEMT_OPA862 
X_OL_SENSE         MID N69264 N68747 N68594 OL_SENSE_OPA862 
X_OL_SENSE1         MID N1101765 N1101471 N1102123 OL_SENSE_OPA862 
X_SW_OL         SW_OL_OPA862 MID N725398 N725428 SW_OL_OPA862 
X_SW_OL1         SW_OL2 MID N1099061 N1099065 SW_OL_OPA862 
X_U1         VOUT+ VCC VEE ESD_OUT_OPA862 
X_U10         N56659 N56721 CLAMP MID GR_SRC_OPA862 
X_U11         CLAMP N166377 N166817 SW_OR_OPA862 
X_U12         N56919 N56891 N61579 MID N56635 N56733 CLAMP_AMP_HI_OPA862 
X_U13         VIMON2 MID VCC_B N1094929 CLAWP_OPA862 
X_U14         VIMON2 MID VCC MID IQ_SRC_OPA862 
X_U15         N1094691 N1096159 VIMON2 MID N1095865 N1096379 CLAMP_AMP_LO_OPA862 
X_U16         N1094753 N1096255 N1096025 MID N1096037 N1096451 CLAMP_AMP_HI_OPA862 
X_U17         N1095893 N1096411 CL_CLAMP2 MID CL_SRC_OPA862 
X_U18         N1096065 N1096483 CLAMP2 MID GR_SRC_OPA862 
X_U19         VCC_CLP2 VEE_CLP2 VOUT_S2 MID N1096307 N1096809 CLAMP_AMP_LO_OPA862 
X_U2         MID VIMON N1026979 VEE_B CLAWN_OPA862 
X_U20         N1096335 N1096837 CLAW_CLAMP2 MID CLAW_SRC_OPA862 
X_U21         MID VIMON2 MID VEE IQ_SRC_OPA862 
X_U22         MID VIMON2 N1096867 VEE_B CLAWN_OPA862 
X_U23         CLAMP2 N1095959 N1095965 SW_OR_OPA862 
X_U24         VOUT- VCC VEE ESD_OUT_OPA862 
X_U3         VIMON MID VCC_B N1026281 CLAWP_OPA862 
X_U4         VCC_CLP VEE_CLP VOUT_S MID N1026735 N1027041 CLAMP_AMP_LO_OPA862 
X_U5         N1026763 N1027055 CLAW_CLAMP MID CLAW_SRC_OPA862 
X_U6         N1026583 N1026875 CL_CLAMP MID CL_SRC_OPA862 
X_U7         N1026117 N1027263 VIMON MID N1026555 N1026861 CLAMP_AMP_LO_OPA862 
X_U8         MID VIMON MID VEE IQ_SRC_OPA862 
X_U9         VIMON MID VCC MID IQ_SRC_OPA862 
X_VCM_CLAMP         N25816 MID N30913 MID N30136 N28602 VCM_CLAMP_OPA862 
X_VCM_CLAMP1         N1098339 MID N1098039 MID N1097817 N1098621 VCM_CLAMP_OPA862 
X_VOS_VS_VCM         N10561 N749288 VCC VEE VOS_VS_VCM_OPA862 
X_VOS_VS_VCM1         N1097073 N1098323 VCC VEE VOS_VS_VCM_OPA862 
.ENDS  OPA862
*
.SUBCKT 08_OP_AMP_COMPLETE_H1_OPA862 1 2 3 4  
H_H1         3 4 VH_H1 1
VH_H1         1 2 0V
.ENDS  08_OP_AMP_COMPLETE_H1_OPA862
*
.SUBCKT 08_OP_AMP_COMPLETE_H2_OPA862 1 2 3 4  
H_H2         3 4 VH_H2 -1
VH_H2         1 2 0V
.ENDS  08_OP_AMP_COMPLETE_H2_OPA862
*
.SUBCKT 08_OP_AMP_COMPLETE_H3_OPA862 1 2 3 4  
H_H3         3 4 VH_H3 -1E3
VH_H3         1 2 0V
.ENDS  08_OP_AMP_COMPLETE_H3_OPA862
*
.SUBCKT 08_OP_AMP_COMPLETE_H4_OPA862 1 2 3 4  
H_H4         3 4 VH_H4 1
VH_H4         1 2 0V
.ENDS  08_OP_AMP_COMPLETE_H4_OPA862
*
.SUBCKT 08_OP_AMP_COMPLETE_H5_OPA862 1 2 3 4  
H_H5         3 4 VH_H5 -1
VH_H5         1 2 0V
.ENDS  08_OP_AMP_COMPLETE_H5_OPA862
*
.SUBCKT 08_OP_AMP_COMPLETE_H6_OPA862 1 2 3 4  
H_H6         3 4 VH_H6 -1E3
VH_H6         1 2 0V
.ENDS  08_OP_AMP_COMPLETE_H6_OPA862
*
.SUBCKT AOL_1_OPA862 VC+ VC- IOUT+ IOUT-
.PARAM GAIN = 1E-4
.PARAM IPOS = .5
.PARAM INEG = -.5
G1 IOUT+ IOUT- VALUE={LIMIT(GAIN*V(VC+,VC-),INEG,IPOS)}
.ENDS  AOL_1_OPA862
*
.SUBCKT AOL_2_OPA862 VC+ VC- IOUT+ IOUT-
.PARAM GAIN = 1.4125
.PARAM IPOS = 15
.PARAM INEG = -15
G1 IOUT+ IOUT- VALUE={LIMIT(GAIN*V(VC+,VC-),INEG,IPOS)}
.ENDS  AOL_2_OPA862
*
.SUBCKT CLAMP_AMP_HI_OPA862 VC+ VC- VIN COM VO+ VO-
.PARAM G=10
GVO+ COM VO+ VALUE = {IF(V(VIN,COM)>V(VC+,COM),((V(VIN,COM)-V(VC+,COM))*G),0)}
GVO- COM VO- VALUE = {IF(V(VIN,COM)<V(VC-,COM),((V(VC-,COM)-V(VIN,COM))*G),0)}
.ENDS  CLAMP_AMP_HI_OPA862
*
.SUBCKT CLAMP_AMP_LO_OPA862 VC+ VC- VIN COM VO+ VO-
.PARAM G=1
GVO+ COM VO+ VALUE = {IF(V(VIN,COM)>V(VC+,COM),((V(VIN,COM)-V(VC+,COM))*G),0)}
GVO- COM VO- VALUE = {IF(V(VIN,COM)<V(VC-,COM),((V(VC-,COM)-V(VIN,COM))*G),0)}
.ENDS  CLAMP_AMP_LO_OPA862
*
.SUBCKT CLAWN_OPA862 VC+ VC- IOUT+ IOUT-
G1 IOUT+ IOUT- TABLE {(V(VC+,VC-))} =
+(00, -1.5E-4)
+(20, -1.7E-4)
+(32, -1.8E-4)
+(37, -3.49E-4)
+(40, -4.51E-4)
+(46, -7.51E-4)
+(50, -1.06E-3)
+(51, -1.15E-3)
+(52, -1.34E-3)
+(53, -2.75E-3)
.ENDS  CLAWN_OPA862
*
.SUBCKT CLAWP_OPA862 VC+ VC- IOUT+ IOUT-
G1 IOUT+ IOUT- TABLE {(V(VC+,VC-))} =
+(00, -1.5E-4)
+(20, -1.7E-4)
+(30, -1.8E-4)
+(35, -1.9E-4)
+(40, -2.8E-4)
+(50, -6.7E-4)
+(55, -9.4E-4)
+(60, -1.34E-3)
+(62, -1.72E-3)
+(64, -2.75E-3)
.ENDS  CLAWP_OPA862
*
.SUBCKT CLAW_SRC_OPA862 VC+ VC- IOUT+ IOUT-
.PARAM GAIN = 1
.PARAM IPOS = 1.03
.PARAM INEG = -1.03
G1 IOUT+ IOUT- VALUE={LIMIT(GAIN*V(VC+,VC-),INEG,IPOS)}
.ENDS  CLAW_SRC_OPA862
*
.SUBCKT CL_SRC_OPA862 VC+ VC- IOUT+ IOUT-
.PARAM GAIN = 1
.PARAM IPOS = 2.06
.PARAM INEG = -2.06
G1 IOUT+ IOUT- VALUE={LIMIT(GAIN*V(VC+,VC-),INEG,IPOS)}
.ENDS  CL_SRC_OPA862
*
.SUBCKT ESD_OUT_OPA862 OUT VCC VEE
.MODEL ESD_SW VSWITCH(RON=50 ROFF=1E12 VON=500E-3 VOFF=450E-3)
S1 VCC OUT OUT VCC ESD_SW
S2 OUT VEE VEE OUT ESD_SW
.ENDS  ESD_OUT_OPA862
*
.SUBCKT FEMT_OPA862 1 2
.PARAM FLWF=0.1
.PARAM NLFF=101
.PARAM NVRF=0.67
.PARAM GLFF={PWR(FLWF,0.25)*NLFF/1164}
.PARAM RNVF={1.184*PWR(NVRF,2)}
.MODEL DNVF D KF={PWR(FLWF,0.5)/1E11} IS=1.0E-16
I1 0 7 10E-3
I2 0 8 10E-3
D1 7 0 DNVF
D2 8 0 DNVF
E1 3 6 7 8 {GLFF}
R1 3 0 1E9
R2 3 0 1E9
R3 3 6 1E9
E2 6 4 5 0 10
R4 5 0 {RNVF}
R5 5 0 {RNVF}
R6 3 4 1E9
R7 4 0 1E9
G1 1 2 3 4 1E-6
.ENDS  FEMT_OPA862
*
.SUBCKT GR_SRC_OPA862 VC+ VC- IOUT+ IOUT-
.PARAM GAIN = 1
.PARAM IPOS = 0.25
.PARAM INEG = -0.25
G1 IOUT+ IOUT- VALUE={LIMIT(GAIN*V(VC+,VC-),INEG,IPOS)}
.ENDS  GR_SRC_OPA862
*
.SUBCKT IQ_SRC_OPA862 VC+ VC- IOUT+ IOUT-
.PARAM GAIN = 1E-3
G1 IOUT+ IOUT- VALUE={IF( (V(VC+,VC-)<=0),0,GAIN*V(VC+,VC-) )}
.ENDS  IQ_SRC_OPA862
*
.SUBCKT OL_SENSE_OPA862 1   2  3  4
GSW+ 1 2 VALUE = {IF((V(3,1)>10E-3 | V(4,1)>10E-3),1,0)}
.ENDS  OL_SENSE_OPA862
*
.SUBCKT SW_OL_OPA862 SW_OL_OPA862 MID CAP_L CAP_R
.MODEL OL_SW VSWITCH(RON=1E-3 ROFF=1E9 VON=900E-3 VOFF=800E-3)
S1 CAP_L CAP_R SW_OL_OPA862 MID OL_SW
.ENDS  SW_OL_OPA862
*
.SUBCKT SW_OR_OPA862 CLAMP OLN OLP
.MODEL OR_SW VSWITCH(RON=10E-3 ROFF=1E9 VON=10E-3 VOFF=0)
S1 OLP CLAMP CLAMP OLP OR_SW
S2 CLAMP OLN OLN CLAMP OR_SW
.ENDS  SW_OR_OPA862
*
.SUBCKT VCM_CLAMP_OPA862 VIN+ VIN- IOUT- IOUT+ VP+ VP-
.PARAM GAIN = 1
G1 IOUT+ IOUT- VALUE={LIMIT(GAIN*V(VIN+,VIN-),V(VP-,VIN-), V(VP+,VIN-))}
.ENDS  VCM_CLAMP_OPA862
*
.SUBCKT VNSE_OPA862 1 2
.PARAM FLW=0.1
.PARAM NLF=47.6
.PARAM NVR=2.27
.PARAM GLF={PWR(FLW,0.25)*NLF/1164}
.PARAM RNV={1.184*PWR(NVR,2)}
.MODEL DVN D KF={PWR(FLW,0.5)/1E11} IS=1.0E-16
I1 0 7 10E-3
I2 0 8 10E-3
D1 7 0 DVN
D2 8 0 DVN
E1 3 6 7 8 {GLF}
R1 3 0 1E9
R2 3 0 1E9
R3 3 6 1E9
E2 6 4 5 0 10
R4 5 0 {RNV}
R5 5 0 {RNV}
R6 3 4 1E9
R7 4 0 1E9
E3 1 2 3 4 1
.ENDS  VNSE_OPA862
*
.SUBCKT VOS_VS_VCM_OPA862 V+ V- REF+ REF-
E1 V+ 1 TABLE {(V(REF+, V-))} =
+(0.35, 450E-6)
+(0.4, 435E-6)
+(0.55, 275E-6)
+(0.65, 150E-6)
+(0.75, 75E-6)
+(0.85, 25E-6)
+(1, 0)
V1 1 V- 0
.ENDS  VOS_VS_VCM_OPA862
*
.MODEL R_NOISELESS RES (T_ABS=-273.15)